data/sourcebus_22000.trafo_75616874_75616874/voltage_profile.csv
Bus, BasekV, Node1, Magnitude1, Angle1, pu1, Node2, Magnitude2, Angle2, pu2, Node3, Magnitude3, Angle3, pu3
"TRAFO_75616874_75616874", 22, 1,    12701.7,    0.0,         1, 2,    12701.7, -120.0,         1, 3,    12701.7,  120.0,         1
"3100704", 0.4, 2,          0,    0.0,         0, 0, 0, 0, 0, 0, 0, 0, 0
"3103460", 0.4, 2,          0,    0.0,         0, 0, 0, 0, 0, 0, 0, 0, 0
"3100721", 0.4, 2,          0,    0.0,         0, 0, 0, 0, 0, 0, 0, 0, 0
"3101942", 0.4, 1,          0,    0.0,         0, 2,          0,    0.0,         0, 3,          0,    0.0,         0
"3104403", 0.4, 2,          0,    0.0,         0, 0, 0, 0, 0, 0, 0, 0, 0
"3102185", 0.4, 1,          0,    0.0,         0, 2,          0,    0.0,         0, 3,          0,    0.0,         0
"3104455", 0.4, 1,          0,    0.0,         0, 2,          0,    0.0,         0, 3,          0,    0.0,         0
"3106494", 0.4, 2,          0,    0.0,         0, 0, 0, 0, 0, 0, 0, 0, 0
"3106699", 0.4, 2,          0,    0.0,         0, 0, 0, 0, 0, 0, 0, 0, 0
"SOURCEBUS_22000", 0.4, 1,          0,    0.0,         0, 2,          0,    0.0,         0, 3,          0,    0.0,         0
